
**** 01/03/25 09:58:39 ********* PSpice 9.2 (Mar 2000) ******** ID# 0 ********

 ** Profile: "SCHEMATIC1-Q1-Simulate"  [ E:\UT PROGRAMMING\ELECTRICAL-CIRCUITS-FALL-2024\CA1\ca1-q1-SCHEMATIC1-Q1-Simulate.sim ] 


 ****     CIRCUIT DESCRIPTION


******************************************************************************




** Creating circuit file "ca1-q1-SCHEMATIC1-Q1-Simulate.sim.cir" 
** WARNING: THIS AUTOMATICALLY GENERATED FILE MAY BE OVERWRITTEN BY SUBSEQUENT SIMULATIONS

*Libraries: 
* Local Libraries :
* From [PSPICE NETLIST] section of C:\Program Files\Orcad\PSpice\PSpice.ini file:
.lib "nom.lib" 

*Analysis directives: 
.PROBE V(*) I(*) W(*) D(*) NOISE(*) 
.INC ".\ca1-q1-SCHEMATIC1.net" 



**** INCLUDING ca1-q1-SCHEMATIC1.net ****
* source CA1-Q1
X_H2    N03329 N03223 N03200 N03442 SCHEMATIC1_H2 
R_R8         N03329 N03306  1  
R_R9         N03249 N03442  1  
R_R10         N03306 N03249  1  
E_E2         N03306 N03442 N03200 N03223 1
R_R11         N03249 N03200  1  
R_R12         N03223 N03200  1  
V_V2         N03249 N03223 9Vdc

.subckt SCHEMATIC1_H2 1 2 3 4  
H_H2         3 4 VH_H2 1
VH_H2         1 2 0V
.ends SCHEMATIC1_H2

**** RESUMING ca1-q1-SCHEMATIC1-Q1-Simulate.sim.cir ****
.END

ERROR -- Node N03329 is floating
ERROR -- Node N03306 is floating
ERROR -- Node N03249 is floating
ERROR -- Node N03442 is floating
ERROR -- Node N03200 is floating
ERROR -- Node N03223 is floating