
**** 01/03/25 16:25:14 ********* PSpice 9.2 (Mar 2000) ******** ID# 0 ********

 ** Profile: "SCHEMATIC1-CA1-Q2-A-Simulate"  [ E:\UT PROGRAMMING\ELECTRICAL-CIRCUITS-FALL-2024\CA1\Q2\A\ca1-q2-a-SCHEMATIC1-CA1-Q2-A-


 ****     CIRCUIT DESCRIPTION


******************************************************************************




** Creating circuit file "ca1-q2-a-SCHEMATIC1-CA1-Q2-A-Simulate.sim.cir" 
** WARNING: THIS AUTOMATICALLY GENERATED FILE MAY BE OVERWRITTEN BY SUBSEQUENT SIMULATIONS

*Libraries: 
* Local Libraries :
* From [PSPICE NETLIST] section of C:\Program Files\Orcad\PSpice\PSpice.ini file:
.lib "nom.lib" 

*Analysis directives: 
.PROBE V(*) I(*) W(*) D(*) NOISE(*) 
.INC ".\ca1-q2-a-SCHEMATIC1.net" 



**** INCLUDING ca1-q2-a-SCHEMATIC1.net ****
* source CA1-Q2-A
R_R1         N00479 N00597  4  
R_R2         N00421 N00597  1  
R_R3         N00391 N00421  2  
V_V2         N00361 N00391 8Vdc
I_I1         N00421 N00479 DC 3Adc  
X_H1    N00361 N00597 N00479 N00391 SCHEMATIC1_H1 

.subckt SCHEMATIC1_H1 1 2 3 4  
H_H1         3 4 VH_H1 3
VH_H1         1 2 0V
.ends SCHEMATIC1_H1

**** RESUMING ca1-q2-a-SCHEMATIC1-CA1-Q2-A-Simulate.sim.cir ****
.END

ERROR -- Node N00479 is floating
ERROR -- Node N00597 is floating
ERROR -- Node N00421 is floating
ERROR -- Node N00391 is floating
ERROR -- Node N00361 is floating